/*---------------------------------------------------------------------------*\
  =========                 |
  \\      /  F ield         | OpenFOAM: The Open Source CFD Toolbox
   \\    /   O peration     | Website:  https://openfoam.org
    \\  /    A nd           | Version:  13
     \\/     M anipulation  |
\*---------------------------------------------------------------------------*/
Build  : 13-441953dfbb42
Exec   : foamRun -parallel -solver incompressibleFluid
Date   : Jun 17 2026
Time   : 12:58:34
Host   : "Tavea-Station"
PID    : 196028
I/O    : uncollated
Case   : /home/heiko/CFD-Cases/Testcase-GPU
nProcs : 8
Slaves : 
7
(
"Tavea-Station.196029"
"Tavea-Station.196030"
"Tavea-Station.196031"
"Tavea-Station.196032"
"Tavea-Station.196033"
"Tavea-Station.196034"
"Tavea-Station.196035"
)

Pstream initialised with:
    floatTransfer      : false
    nProcsSimpleSum    : 0
    commsType          : nonBlocking
    polling iterations : 0
sigFpe : Enabling floating point exception trapping (FOAM_SIGFPE).
fileModificationChecking : Monitoring run-time modified files using timeStampMaster (fileModificationSkew 0)
allowSystemOperations : Allowing user-supplied system call operations

// * * * * * * * * * * * * * * * * * * * * * * * * * * * * * * * * * * * * * //
Create time

Create mesh for time = 0

Selecting solver incompressibleFluid
Selecting viscosity model Newtonian
Selecting turbulence model type RAS
    Selecting RAS turbulence model kOmegaSST
Creating MRF zone list from MRFProperties
Selecting patchDistMethod meshWave
--> FOAM Warning : Creating fvConstraints from "system/fvOptions"

--> FOAM Warning : Creating fvModels from "system/fvOptions" rather than constant/fvModels

SIMPLE: No convergence criteria found


SIMPLE: Operating solver in steady-state mode with 1 outer corrector
SIMPLE: Operating solver in SIMPLE mode



Starting time loop

wallShearStress wallShearStress:
    processing all wall patches

Time = 1s

DILUPBiCGStab:  Solving for Ux, Initial residual = 1, Final residual = 0.05486391, No Iterations 2
DILUPBiCGStab:  Solving for Uy, Initial residual = 1, Final residual = 0.0816295, No Iterations 2
DILUPBiCGStab:  Solving for Uz, Initial residual = 1, Final residual = 0.05666546, No Iterations 2
[OGL LOG][lduLduBase.hpp:106] Initialising OGL
	OGL commit:  1000981+
	Branch: pr168 
	Build type: Release
	Ginkgo version: 2.0.0 ( develop)
	Ginkgo commit: 
	MPI is GPU aware: 1
	Fuses matrix interface: 1
	Forces host buffer based communication: 1
	Splits MPI communicator: 1
	CPU ranks per GPU: 8
	Matrix format: Csr
	End OGL_INFO
[OGL LOG]3][ExecutorHandler.hpp:185] Create sycl executor, on node: Tavea-Station device: 0 local rank [0/-1] global rank [3/7]
[OGL LOG]1][ExecutorHandler.hpp:185] Create sycl executor, on node: Tavea-Station device: 0 local rank [0/-1] global rank [1/7]
[OGL LOG]5][ExecutorHandler.hpp:185] Create sycl executor, on node: Tavea-Station device: 0 local rank [0/-1] global rank [5/7]
[OGL LOG]2][ExecutorHandler.hpp:185] Create sycl executor, on node: Tavea-Station device: 0 local rank [0/-1] global rank [2/7]
[OGL LOG]7][ExecutorHandler.hpp:185] Create sycl executor, on node: Tavea-Station device: 0 local rank [0/-1] global rank [7/7]
[OGL LOG]6][ExecutorHandler.hpp:185] Create sycl executor, on node: Tavea-Station device: 0 local rank [0/-1] global rank [6/7]
[OGL LOG]0][ExecutorHandler.hpp:185] Create sycl executor, on node: Tavea-Station device: 0 local rank [0/-1] global rank [0/7]
[OGL LOG]4][ExecutorHandler.hpp:185] Create sycl executor, on node: Tavea-Station device: 0 local rank [0/-1] global rank [4/7]
[OGL LOG][Base.hpp:104] initialising p_distributed_matrix
[OGL LOG]0][HostMatrix.cpp:273] start init host sparsity pattern
[OGL LOG]5][HostMatrix.cpp:273] start init host sparsity pattern
[OGL LOG]4][HostMatrix.cpp:273] start init host sparsity pattern
[OGL LOG]3][HostMatrix.cpp:273] start init host sparsity pattern
[OGL LOG]1][HostMatrix.cpp:273] start init host sparsity pattern
[OGL LOG]2][HostMatrix.cpp:273] start init host sparsity pattern
[OGL LOG]7][HostMatrix.cpp:273] start init host sparsity pattern
[OGL LOG]6][HostMatrix.cpp:273] start init host sparsity pattern
[OGL LOG]0][HostMatrix.cpp:318] done init host sparsity pattern
[OGL LOG]1][HostMatrix.cpp:318] done init host sparsity pattern
[OGL LOG]5][HostMatrix.cpp:318] done init host sparsity pattern
[OGL LOG]6][HostMatrix.cpp:318] done init host sparsity pattern
[OGL LOG]7][HostMatrix.cpp:318] done init host sparsity pattern
[OGL LOG]3][HostMatrix.cpp:318] done init host sparsity pattern
[OGL LOG]4][HostMatrix.cpp:318] done init host sparsity pattern
[OGL LOG]2][HostMatrix.cpp:318] done init host sparsity pattern
[OGL LOG]2][Repartitioner.cpp:28] start repartition sparsity pattern
[OGL LOG]1][Repartitioner.cpp:28] start repartition sparsity pattern
[OGL LOG]3][Repartitioner.cpp:28] start repartition sparsity pattern
[OGL LOG]6][Repartitioner.cpp:28] start repartition sparsity pattern
[OGL LOG]5][Repartitioner.cpp:28] start repartition sparsity pattern
[OGL LOG]7][Repartitioner.cpp:28] start repartition sparsity pattern
[OGL LOG]4][Repartitioner.cpp:28] start repartition sparsity pattern
[OGL LOG]0][Repartitioner.cpp:28] start repartition sparsity pattern
[OGL LOG][Proc: 4]: generate_all_to_all_update_data: 0.005 [ms]
[OGL LOG][Proc: 4]: generate_local_pairwise_data: 0 [ms]
[OGL LOG][Proc: 4]: generate_non_local_pairwise_data: 0.001 [ms]
[OGL LOG][Proc: 6]: generate_all_to_all_update_data: 0.005 [ms]
[OGL LOG][Proc: 6]: generate_local_pairwise_data: 0 [ms]
[OGL LOG][Proc: 6]: generate_non_local_pairwise_data: 0.001 [ms]
[OGL LOG][Proc: 3]: generate_all_to_all_update_data: 0.005 [ms]
[OGL LOG][Proc: 3]: generate_local_pairwise_data: 0 [ms]
[OGL LOG][Proc: 3]: generate_non_local_pairwise_data: 0.001 [ms]
[OGL LOG][Proc: 1]: generate_all_to_all_update_data: 0.006 [ms]
[OGL LOG][Proc: 1]: generate_local_pairwise_data: 0 [ms]
[OGL LOG][Proc: 1]: generate_non_local_pairwise_data: 0.001 [ms]
[OGL LOG][Proc: 2]: generate_all_to_all_update_data: 0.005 [ms]
[OGL LOG][Proc: 2]: generate_local_pairwise_data: 0 [ms]
[OGL LOG][Proc: 2]: generate_non_local_pairwise_data: 0.001 [ms]
[OGL LOG][Proc: 5]: generate_all_to_all_update_data: 0.005 [ms]
[OGL LOG][Proc: 5]: generate_local_pairwise_data: 0 [ms]
[OGL LOG][Proc: 5]: generate_non_local_pairwise_data: 0.001 [ms]
[OGL LOG][Proc: 7]: generate_all_to_all_update_data: 0.005 [ms]
[OGL LOG][Proc: 7]: generate_local_pairwise_data: 0 [ms]
[OGL LOG][Proc: 7]: generate_non_local_pairwise_data: 0.001 [ms]
[OGL LOG][Proc: 2]: generate_local_reorder_map: 0.002 [ms]
[OGL LOG][Proc: 2]: generate_non_local_reorder_map: 0.001 [ms]
[OGL LOG][Proc: 3]: generate_local_reorder_map: 0.002 [ms]
[OGL LOG][Proc: 3]: generate_non_local_reorder_map: 0.001 [ms]
[OGL LOG][Proc: 1]: generate_local_reorder_map: 0.002 [ms]
[OGL LOG][Proc: 1]: generate_non_local_reorder_map: 0.002 [ms]
[OGL LOG][Proc: 4]: generate_local_reorder_map: 0.002 [ms]
[OGL LOG][Proc: 4]: generate_non_local_reorder_map: 0.001 [ms]
[OGL LOG][Proc: 5]: generate_local_reorder_map: 0.002 [ms]
[OGL LOG][Proc: 5]: generate_non_local_reorder_map: 0.001 [ms]
[OGL LOG][Proc: 6]: generate_local_reorder_map: 0.002 [ms]
[OGL LOG][Proc: 6]: generate_non_local_reorder_map: 0.001 [ms]
[OGL LOG][Proc: 7]: generate_local_reorder_map: 0.002 [ms]
[OGL LOG][Proc: 7]: generate_non_local_reorder_map: 0.001 [ms]
terminate called after throwing an instance of 'sycl::_V1::exception'
  what():  level_zero backend failed with error: 20 (UR_RESULT_ERROR_DEVICE_LOST)
[Tavea-Station:196028] *** Process received signal ***
[Tavea-Station:196028] Signal: Aborted (6)
[Tavea-Station:196028] Signal code:  (-6)
[Tavea-Station:196028] [ 0] /usr/lib/x86_64-linux-gnu/libc.so.6(+0x45cb0) [0x79c930045cb0]
[Tavea-Station:196028] [ 1] /usr/lib/x86_64-linux-gnu/libc.so.6(pthread_kill+0x11c) [0x79c9300a648c]
[Tavea-Station:196028] [ 2] /usr/lib/x86_64-linux-gnu/libc.so.6(gsignal+0x1e) [0x79c930045b7e]
[Tavea-Station:196028] [ 3] /usr/lib/x86_64-linux-gnu/libc.so.6(abort+0x27) [0x79c9300288ec]
[Tavea-Station:196028] [ 4] /usr/lib/x86_64-linux-gnu/libstdc++.so.6(+0xac275) [0x79c9304ac275]
[Tavea-Station:196028] [ 5] /usr/lib/x86_64-linux-gnu/libstdc++.so.6(+0xc364a) [0x79c9304c364a]
[Tavea-Station:196028] [ 6] /usr/lib/x86_64-linux-gnu/libstdc++.so.6(_ZSt10unexpectedv+0x0) [0x79c9304abc6c]
[Tavea-Station:196028] [ 7] /usr/lib/x86_64-linux-gnu/libstdc++.so.6(+0xc3901) [0x79c9304c3901]
[Tavea-Station:196028] [ 8] /opt/intel/oneapi/compiler/2026.0/lib/libsycl.so.9(+0x1bbf84) [0x79c9087bbf84]
[Tavea-Station:196028] [ 9] /opt/intel/oneapi/compiler/2026.0/lib/libsycl.so.9(+0x20b830) [0x79c90880b830]
[Tavea-Station:196028] [10] /opt/intel/oneapi/compiler/2026.0/lib/libsycl.so.9(+0x20b9ed) [0x79c90880b9ed]
[Tavea-Station:196028] [11] /home/heiko/OpenFOAM/heiko-13/platforms/linux64GccDPInt32Opt/lib/libginkgo_dpcpp.so.2.0.0(_ZNK3gko13DpcppExecutor11raw_copy_toEPKS0_mPKvPv+0xc9) [0x79c90e2f5e19]
[Tavea-Station:196028] [12] /home/heiko/OpenFOAM/heiko-13/platforms/linux64GccDPInt32Opt/lib/libOGL.so(_ZNK3gko8Executor9copy_fromIdEEvNS_9ptr_paramIKS0_EEmPKT_PS5_+0x111) [0x79c919ab6201]
[Tavea-Station:196028] [13] /home/heiko/OpenFOAM/heiko-13/platforms/linux64GccDPInt32Opt/lib/libOGL.so(_ZN3gko5arrayIdEaSERKS1_+0x22e) [0x79c919ab53fe]
[Tavea-Station:196028] [14] /home/heiko/OpenFOAM/heiko-13/platforms/linux64GccDPInt32Opt/lib/libOGL.so(_ZN3gko5arrayIdEC2ERKS1_+0x10a) [0x79c919b009ea]
[Tavea-Station:196028] [15] /home/heiko/OpenFOAM/heiko-13/platforms/linux64GccDPInt32Opt/lib/libOGL.so(_Z11create_implIN3gko6matrix3CsrIdiEENS1_3CooIdiEEESt10shared_ptrI16RepartDistMatrixERKN4Foam15ExecutorHandlerES6_IK13RepartitionerES6_IKNS9_17HostMatrixWrapperEENS9_4wordEbi+0xd3b) [0x79c919af003b]
[Tavea-Station:196028] [16] /home/heiko/OpenFOAM/heiko-13/platforms/linux64GccDPInt32Opt/lib/libOGL.so(_Z18create_distributedRKN4Foam15ExecutorHandlerESt10shared_ptrIK13RepartitionerES3_IKNS_17HostMatrixWrapperEENS_4wordEbi+0x592) [0x79c919addc52]
[Tavea-Station:196028] [17] /home/heiko/OpenFOAM/heiko-13/platforms/linux64GccDPInt32Opt/lib/libOGL.so(_ZNK4Foam28DistributedMatrixInitFunctor4initEv+0x1b1) [0x79c919b3af11]
[Tavea-Station:196028] [18] /home/heiko/OpenFOAM/heiko-13/platforms/linux64GccDPInt32Opt/lib/libOGL.so(_ZNK4Foam10lduLduBaseINS_9lduMatrixENS_12GKOCGFactoryEE20solve_multi_gpu_implERNS_5FieldIdEERKS5_RNS_17SolverPerformanceIdEE+0x1b74) [0x79c919b2aca4]
[Tavea-Station:196028] [19] /home/heiko/OpenFOAM/heiko-13/platforms/linux64GccDPInt32Opt/lib/libOGL.so(_ZNK4Foam16GKOlduBaseSolverINS_12GKOCGFactoryEE10solve_implENS_4wordERNS_5FieldIdEERKS5_h+0x4f3) [0x79c919b18c53]
[Tavea-Station:196028] [20] /home/heiko/OpenFOAM/heiko-13/platforms/linux64GccDPInt32Opt/lib/libOGL.so(_ZNK4Foam5GKOCG5solveERNS_5FieldIdEERKS2_h+0xa6) [0x79c919b18706]
[Tavea-Station:196028] [21] /opt/openfoam13/platforms/linux64GccDPInt32Opt/lib/libfiniteVolume.so(_ZN4Foam8fvMatrixIdE15solveSegregatedERKNS_10dictionaryE+0x1b7) [0x79c9322ecf47]
[Tavea-Station:196028] [22] /opt/openfoam13/platforms/linux64GccDPInt32Opt/lib/libfiniteVolume.so(_ZN4Foam8fvMatrixIdE5solveERKNS_10dictionaryE+0x312) [0x79c931d5a3a2]
[Tavea-Station:196028] [23] /opt/openfoam13/platforms/linux64GccDPInt32Opt/lib/libfiniteVolume.so(_ZN4Foam8fvMatrixIdE5solveEv+0x8a) [0x79c931d6ff6a]
[Tavea-Station:196028] [24] /opt/openfoam13/platforms/linux64GccDPInt32Opt/lib/libincompressibleFluid.so(_ZN4Foam7solvers19incompressibleFluid15correctPressureEv+0x70a) [0x79c8f359664a]
[Tavea-Station:196028] [25] /opt/openfoam13/platforms/linux64GccDPInt32Opt/lib/libincompressibleFluid.so(_ZN4Foam7solvers19incompressibleFluid17pressureCorrectorEv+0x2c) [0x79c8f35c0bec]
[Tavea-Station:196028] [26] foamRun(+0x416e) [0x5ece542c616e]
[Tavea-Station:196028] [27] /usr/lib/x86_64-linux-gnu/libc.so.6(+0x2a601) [0x79c93002a601]
[Tavea-Station:196028] [28] /usr/lib/x86_64-linux-gnu/libc.so.6(__libc_start_main+0x88) [0x79c93002a718]
[Tavea-Station:196028] [29] foamRun(+0x4775) [0x5ece542c6775]
[Tavea-Station:196028] *** End of error message ***
--------------------------------------------------------------------------
Sorry!  You were supposed to get help about:
    prun:proc-aborted-strsignal
But I couldn't open the help file:
    /usr/lib/x86_64-linux-gnu/pmix2/share/pmix/help-prun.txt: No such file or directory
    /usr/lib/x86_64-linux-gnu/prrte3/share/prte/help-prun.txt: No such file or directory.
Sorry!
--------------------------------------------------------------------------
 