/*---------------------------------------------------------------------------*\
  =========                 |
  \\      /  F ield         | OpenFOAM: The Open Source CFD Toolbox
   \\    /   O peration     | Website:  https://openfoam.org
    \\  /    A nd           | Version:  13
     \\/     M anipulation  |
\*---------------------------------------------------------------------------*/
Build  : 13-441953dfbb42
Exec   : foamRun -parallel -solver incompressibleFluid
Date   : Jun 09 2026
Time   : 23:26:06
Host   : "Tavea-Station"
PID    : 41961
I/O    : uncollated
Case   : /home/heiko/CFD-Cases/Testcase-GPU
nProcs : 8
Slaves : 
7
(
"Tavea-Station.41962"
"Tavea-Station.41963"
"Tavea-Station.41964"
"Tavea-Station.41965"
"Tavea-Station.41966"
"Tavea-Station.41967"
"Tavea-Station.41968"
)

Pstream initialised with:
    floatTransfer      : false
    nProcsSimpleSum    : 0
    commsType          : nonBlocking
    polling iterations : 0
sigFpe : Enabling floating point exception trapping (FOAM_SIGFPE).
fileModificationChecking : Monitoring run-time modified files using timeStampMaster (fileModificationSkew 0)
allowSystemOperations : Allowing user-supplied system call operations

// * * * * * * * * * * * * * * * * * * * * * * * * * * * * * * * * * * * * * //
Create time

Create mesh for time = 0

Selecting solver incompressibleFluid
Selecting viscosity model Newtonian
Selecting turbulence model type RAS
    Selecting RAS turbulence model kOmegaSST
Creating MRF zone list from MRFProperties
Selecting patchDistMethod meshWave
--> FOAM Warning : Creating fvConstraints from "system/fvOptions"

--> FOAM Warning : Creating fvModels from "system/fvOptions" rather than constant/fvModels

SIMPLE: No convergence criteria found


SIMPLE: Operating solver in steady-state mode with 1 outer corrector
SIMPLE: Operating solver in SIMPLE mode



Starting time loop

wallShearStress wallShearStress:
    processing all wall patches

Time = 1s

DILUPBiCGStab:  Solving for Ux, Initial residual = 1, Final residual = 0.05486391, No Iterations 2
DILUPBiCGStab:  Solving for Uy, Initial residual = 1, Final residual = 0.0816295, No Iterations 2
DILUPBiCGStab:  Solving for Uz, Initial residual = 1, Final residual = 0.05666546, No Iterations 2
[OGL LOG][lduLduBase.hpp:106] Initialising OGL
	OGL commit:  1000981+
	Branch: pr168 
	Build type: Release
	Ginkgo version: 2.0.0 ( develop)
	Ginkgo commit: 
	MPI is GPU aware: 1
	Fuses matrix interface: 1
	Forces host buffer based communication: 1
	Splits MPI communicator: 1
	CPU ranks per GPU: 8
	Matrix format: Csr
	End OGL_INFO
[OGL LOG]7][ExecutorHandler.hpp:170] Create sycl executor, on node: Tavea-Station device: 0 local rank [0/-1] global rank [7/7]
[OGL LOG]6][ExecutorHandler.hpp:170] Create sycl executor, on node: Tavea-Station device: 0 local rank [0/-1] global rank [6/7]
[OGL LOG]3][ExecutorHandler.hpp:170] Create sycl executor, on node: Tavea-Station device: 0 local rank [0/-1] global rank [3/7]
[OGL LOG]5][ExecutorHandler.hpp:170] Create sycl executor, on node: Tavea-Station device: 0 local rank [0/-1] global rank [5/7]
[OGL LOG]2][ExecutorHandler.hpp:170] Create sycl executor, on node: Tavea-Station device: 0 local rank [0/-1] global rank [2/7]
[OGL LOG]0][ExecutorHandler.hpp:170] Create sycl executor, on node: Tavea-Station device: 0 local rank [0/-1] global rank [0/7]
[OGL LOG]1][ExecutorHandler.hpp:170] Create sycl executor, on node: Tavea-Station device: 0 local rank [0/-1] global rank [1/7]
[OGL LOG]4][ExecutorHandler.hpp:170] Create sycl executor, on node: Tavea-Station device: 0 local rank [0/-1] global rank [4/7]
[OGL LOG][Base.hpp:104] initialising p_distributed_matrix
[OGL LOG]0][HostMatrix.cpp:273] start init host sparsity pattern
[OGL LOG]4][HostMatrix.cpp:273] start init host sparsity pattern
[OGL LOG]3][HostMatrix.cpp:273] start init host sparsity pattern
[OGL LOG]5][HostMatrix.cpp:273] start init host sparsity pattern
[OGL LOG]1][HostMatrix.cpp:273] start init host sparsity pattern
[OGL LOG]2][HostMatrix.cpp:273] start init host sparsity pattern
[OGL LOG]6][HostMatrix.cpp:273] start init host sparsity pattern
[OGL LOG]7][HostMatrix.cpp:273] start init host sparsity pattern
[OGL LOG]1][HostMatrix.cpp:318] done init host sparsity pattern
[OGL LOG]0][HostMatrix.cpp:318] done init host sparsity pattern
[OGL LOG]5][HostMatrix.cpp:318] done init host sparsity pattern
[OGL LOG]6][HostMatrix.cpp:318] done init host sparsity pattern
[OGL LOG]2][HostMatrix.cpp:318] done init host sparsity pattern
[OGL LOG]7][HostMatrix.cpp:318] done init host sparsity pattern
[OGL LOG]4][HostMatrix.cpp:318] done init host sparsity pattern
[OGL LOG]3][HostMatrix.cpp:318] done init host sparsity pattern
[OGL LOG]2][Repartitioner.cpp:28] start repartition sparsity pattern
[OGL LOG]1][Repartitioner.cpp:28] start repartition sparsity pattern
[OGL LOG]3][Repartitioner.cpp:28] start repartition sparsity pattern
[OGL LOG]6][Repartitioner.cpp:28] start repartition sparsity pattern
[OGL LOG]5][Repartitioner.cpp:28] start repartition sparsity pattern
[OGL LOG]7][Repartitioner.cpp:28] start repartition sparsity pattern
[OGL LOG]4][Repartitioner.cpp:28] start repartition sparsity pattern
[OGL LOG]0][Repartitioner.cpp:28] start repartition sparsity pattern
[OGL LOG][Proc: 6]: generate_all_to_all_update_data: 0.004 [ms]
[OGL LOG][Proc: 6]: generate_local_pairwise_data: 0 [ms]
[OGL LOG][Proc: 6]: generate_non_local_pairwise_data: 0.002 [ms]
[OGL LOG][Proc: 6]: generate_local_reorder_map: 0.001 [ms]
[OGL LOG][Proc: 6]: generate_non_local_reorder_map: 0.001 [ms]
[OGL LOG][Proc: 7]: generate_all_to_all_update_data: 0.006 [ms]
[OGL LOG][Proc: 7]: generate_local_pairwise_data: 0 [ms]
[OGL LOG][Proc: 7]: generate_non_local_pairwise_data: 0.002 [ms]
[OGL LOG][Proc: 7]: generate_local_reorder_map: 0.002 [ms]
[OGL LOG][Proc: 7]: generate_non_local_reorder_map: 0.001 [ms]
[OGL LOG][Proc: 4]: generate_all_to_all_update_data: 0.003 [ms]
[OGL LOG][Proc: 4]: generate_local_pairwise_data: 0 [ms]
[OGL LOG][Proc: 4]: generate_non_local_pairwise_data: 0.001 [ms]
[OGL LOG][Proc: 4]: generate_local_reorder_map: 0.002 [ms]
[OGL LOG][Proc: 4]: generate_non_local_reorder_map: 0.001 [ms]
[OGL LOG][Proc: 5]: generate_all_to_all_update_data: 0.004 [ms]
[OGL LOG][Proc: 5]: generate_local_pairwise_data: 0 [ms]
[OGL LOG][Proc: 5]: generate_non_local_pairwise_data: 0.001 [ms]
[OGL LOG][Proc: 5]: generate_local_reorder_map: 0.002 [ms]
[OGL LOG][Proc: 5]: generate_non_local_reorder_map: 0.001 [ms]
[OGL LOG][Proc: 1]: generate_all_to_all_update_data: 0.005 [ms]
[OGL LOG][Proc: 1]: generate_local_pairwise_data: 0 [ms]
[OGL LOG][Proc: 1]: generate_non_local_pairwise_data: 0.001 [ms]
[OGL LOG][Proc: 1]: generate_local_reorder_map: 0.002 [ms]
[OGL LOG][Proc: 1]: generate_non_local_reorder_map: 0.001 [ms]
[OGL LOG][Proc: 2]: generate_all_to_all_update_data: 0.004 [ms]
[OGL LOG][Proc: 2]: generate_local_pairwise_data: 0 [ms]
[OGL LOG][Proc: 2]: generate_non_local_pairwise_data: 0.001 [ms]
[OGL LOG][Proc: 2]: generate_local_reorder_map: 0.002 [ms]
[OGL LOG][Proc: 2]: generate_non_local_reorder_map: 0.001 [ms]
[OGL LOG][Proc: 3]: generate_all_to_all_update_data: 0.004 [ms]
[OGL LOG][Proc: 3]: generate_local_pairwise_data: 0 [ms]
[OGL LOG][Proc: 3]: generate_non_local_pairwise_data: 0.001 [ms]
[OGL LOG][Proc: 3]: generate_local_reorder_map: 0.002 [ms]
[OGL LOG][Proc: 3]: generate_non_local_reorder_map: 0.001 [ms]
[OGL LOG][Proc: 0]: generate_all_to_all_update_data: 0.024 [ms]
[OGL LOG][Proc: 0]: generate_local_pairwise_data: 0.002 [ms]
[OGL LOG][Proc: 0]: generate_non_local_pairwise_data: 0.001 [ms]
[OGL LOG][Proc: 0]: generate_local_reorder_map: 466.578 [ms]
[OGL LOG][Proc: 0]: generate_non_local_reorder_map: 0.006 [ms]
[OGL LOG][Proc: 1]p: perform_all_to_all_update: 16984.08 [ms]
[OGL LOG][Proc: 4]p: perform_all_to_all_update: 16996.94 [ms]
[OGL LOG][Proc: 2]p: perform_all_to_all_update: 17009.75 [ms]
[OGL LOG][Proc: 3]p: perform_all_to_all_update: 17022.62 [ms]
[OGL LOG][Proc: 7]p: perform_all_to_all_update: 17035.38 [ms]
[OGL LOG][Proc: 6]p: perform_all_to_all_update: 17048.06 [ms]
[OGL LOG][Proc: 5]p: perform_all_to_all_update: 17058.01 [ms]
[OGL LOG][Proc: 0]p: perform_all_to_all_update: 1054.231 [ms]
[OGL LOG][Proc: 7]p: perform_pairwise_update: 67.625 [ms]
[OGL LOG][Proc: 6]p: perform_pairwise_update: 55.023 [ms]
[OGL LOG][Proc: 5]p: perform_pairwise_update: 45.187 [ms]
[OGL LOG][Proc: 4]p: perform_pairwise_update: 106.437 [ms]
[OGL LOG][Proc: 3]p: perform_pairwise_update: 80.897 [ms]
[OGL LOG][Proc: 7]p: reorder_matrix_data: 0.564 [ms]
[OGL LOG][Proc: 7]: perform_matrix_update: 17103.59 [ms]
[OGL LOG][Proc: 2]p: perform_pairwise_update: 93.902 [ms]
[OGL LOG][Proc: 6]p: reorder_matrix_data: 0.678 [ms]
[OGL LOG][Proc: 6]: perform_matrix_update: 17103.78 [ms]
[OGL LOG][Proc: 1]p: perform_pairwise_update: 119.698 [ms]
[OGL LOG][Proc: 5]p: reorder_matrix_data: 0.683 [ms]
[OGL LOG][Proc: 5]: perform_matrix_update: 17103.9 [ms]
[OGL LOG][Proc: 4]p: reorder_matrix_data: 0.516 [ms]
[OGL LOG][Proc: 4]: perform_matrix_update: 17103.91 [ms]
[OGL LOG][Proc: 3]p: reorder_matrix_data: 0.642 [ms]
[OGL LOG][Proc: 3]: perform_matrix_update: 17104.18 [ms]
[OGL LOG][Proc: 2]p: reorder_matrix_data: 0.511 [ms]
[OGL LOG][Proc: 2]: perform_matrix_update: 17104.18 [ms]
[OGL LOG][Proc: 1]p: reorder_matrix_data: 0.478 [ms]
[OGL LOG][Proc: 1]: perform_matrix_update: 17104.28 [ms]
[OGL LOG][Proc: 0]p: perform_pairwise_update: 1.992 [ms]
[OGL LOG][Proc: 7]p_distributed_matrix: call_init: 21585.9 [ms]
[OGL LOG]7][Vector.hpp:88] initialising vector p_rhs of size 0 orig size 4248005
[OGL LOG][Proc: 6]p_distributed_matrix: call_init: 21586.36 [ms]
[OGL LOG]6][Vector.hpp:88] initialising vector p_rhs of size 0 orig size 4247861
[OGL LOG][Proc: 5]p_distributed_matrix: call_init: 21586.65 [ms]
[OGL LOG]5][Vector.hpp:88] initialising vector p_rhs of size 0 orig size 4246941
[OGL LOG][Proc: 4]p_distributed_matrix: call_init: 21586.81 [ms]
[OGL LOG]4][Vector.hpp:88] initialising vector p_rhs of size 0 orig size 4267161
[OGL LOG][Proc: 1]p_distributed_matrix: call_init: 21587.08 [ms]
[OGL LOG]1][Vector.hpp:88] initialising vector p_rhs of size 0 orig size 4266093
[OGL LOG][Proc: 2]p_distributed_matrix: call_init: 21587.89 [ms]
[OGL LOG]2][Vector.hpp:88] initialising vector p_rhs of size 0 orig size 4271945
[OGL LOG][Proc: 3]p_distributed_matrix: call_init: 21587.92 [ms]
[OGL LOG]3][Vector.hpp:88] initialising vector p_rhs of size 0 orig size 4251060
[OGL LOG][Proc: 0]p: reorder_matrix_data: 36.192 [ms]
[OGL LOG][Proc: 0]: perform_matrix_update: 1092.452 [ms]
[OGL LOG][Proc: 0]p_distributed_matrix: call_init: 21703.43 [ms]
[OGL LOG][Base.hpp:104] initialising p_rhs
[OGL LOG]0][Vector.hpp:88] initialising vector p_rhs of size 34088573 orig size 4289507
[OGL LOG]3][Vector.hpp:110] done initialising vector p_rhs
[OGL LOG][Proc: 3]p_rhs: call_init: 209.137 [ms]
[OGL LOG]3][Vector.hpp:88] initialising vector p_initial_guess of size 0 orig size 4251060
[OGL LOG]6][Vector.hpp:110] done initialising vector p_rhs
[OGL LOG][Proc: 6]p_rhs: call_init: 210.698 [ms]
[OGL LOG]6][Vector.hpp:88] initialising vector p_initial_guess of size 0 orig size 4247861
[OGL LOG]2][Vector.hpp:110] done initialising vector p_rhs
[OGL LOG][Proc: 2]p_rhs: call_init: 209.167 [ms]
[OGL LOG]2][Vector.hpp:88] initialising vector p_initial_guess of size 0 orig size 4271945
[OGL LOG]7][Vector.hpp:110] done initialising vector p_rhs
[OGL LOG][Proc: 7]p_rhs: call_init: 211.155 [ms]
[OGL LOG]7][Vector.hpp:88] initialising vector p_initial_guess of size 0 orig size 4248005
[OGL LOG]4][Vector.hpp:110] done initialising vector p_rhs
[OGL LOG][Proc: 4]p_rhs: call_init: 210.249 [ms]
[OGL LOG]4][Vector.hpp:88] initialising vector p_initial_guess of size 0 orig size 4267161
[OGL LOG]5][Vector.hpp:110] done initialising vector p_rhs
[OGL LOG][Proc: 5]p_rhs: call_init: 210.405 [ms]
[OGL LOG]5][Vector.hpp:88] initialising vector p_initial_guess of size 0 orig size 4246941
[OGL LOG]1][Vector.hpp:110] done initialising vector p_rhs
[OGL LOG][Proc: 1]p_rhs: call_init: 209.975 [ms]
[OGL LOG]1][Vector.hpp:88] initialising vector p_initial_guess of size 0 orig size 4266093
[OGL LOG]0][Vector.hpp:110] done initialising vector p_rhs
[OGL LOG][Proc: 0]p_rhs: call_init: 234.848 [ms]
[OGL LOG][Base.hpp:104] initialising p_initial_guess
[OGL LOG]0][Vector.hpp:88] initialising vector p_initial_guess of size 34088573 orig size 4289507
[OGL LOG]4][Vector.hpp:110] done initialising vector p_initial_guess
[OGL LOG][Proc: 4]p_initial_guess: call_init: 235.089 [ms]
[OGL LOG]5][Vector.hpp:110] done initialising vector p_initial_guess
[OGL LOG][Proc: 5]p_initial_guess: call_init: 235.089 [ms]
[OGL LOG]7][Vector.hpp:110] done initialising vector p_initial_guess
[OGL LOG][Proc: 7]p_initial_guess: call_init: 235.09 [ms]
[OGL LOG]6][Vector.hpp:110] done initialising vector p_initial_guess
[OGL LOG][Proc: 6]p_initial_guess: call_init: 235.089 [ms]
[OGL LOG]2][Vector.hpp:110] done initialising vector p_initial_guess
[OGL LOG][Proc: 2]p_initial_guess: call_init: 235.09 [ms]
[OGL LOG]1][Vector.hpp:110] done initialising vector p_initial_guess
[OGL LOG][Proc: 1]p_initial_guess: call_init: 235.09 [ms]
[OGL LOG]3][Vector.hpp:110] done initialising vector p_initial_guess
[OGL LOG][Proc: 3]p_initial_guess: call_init: 235.09 [ms]
[OGL LOG][Proc: 3]p: init_precond: 3.926 [ms]
[OGL LOG]3][lduLduBase.hpp:288] start create solver
[OGL LOG][Proc: 3]p: generate_solver: 0.033 [ms]
[OGL LOG]3][lduLduBase.hpp:294] done create solver
[OGL LOG][Proc: 2]p: init_precond: 3.926 [ms]
[OGL LOG]2][lduLduBase.hpp:288] start create solver
[OGL LOG][Proc: 2]p: generate_solver: 0.032 [ms]
[OGL LOG]2][lduLduBase.hpp:294] done create solver
[OGL LOG][Proc: 4]p: init_precond: 3.999 [ms]
[OGL LOG]4][lduLduBase.hpp:288] start create solver
[OGL LOG][Proc: 4]p: generate_solver: 0.02 [ms]
[OGL LOG]4][lduLduBase.hpp:294] done create solver
[OGL LOG][Proc: 1]p: init_precond: 4.095 [ms]
[OGL LOG]1][lduLduBase.hpp:288] start create solver
[OGL LOG][Proc: 1]p: generate_solver: 0.02 [ms]
[OGL LOG]1][lduLduBase.hpp:294] done create solver
[OGL LOG][Proc: 5]p: init_precond: 4.167 [ms]
[OGL LOG]5][lduLduBase.hpp:288] start create solver
[OGL LOG][Proc: 5]p: generate_solver: 0.02 [ms]
[OGL LOG]5][lduLduBase.hpp:294] done create solver
[OGL LOG][Proc: 6]p: init_precond: 4.37 [ms]
[OGL LOG]6][lduLduBase.hpp:288] start create solver
[OGL LOG][Proc: 6]p: generate_solver: 0.02 [ms]
[OGL LOG]6][lduLduBase.hpp:294] done create solver
[OGL LOG][Proc: 7]p: init_precond: 4.446 [ms]
[OGL LOG]7][lduLduBase.hpp:288] start create solver
[OGL LOG][Proc: 7]p: generate_solver: 0.021 [ms]
[OGL LOG]7][lduLduBase.hpp:294] done create solver
[OGL LOG]0][Vector.hpp:110] done initialising vector p_initial_guess
[OGL LOG][Proc: 0]p_initial_guess: call_init: 219.487 [ms]
[OGL LOG][Preconditioner.hpp:219] Generate preconditioner ILU
[OGL LOG][Proc: 0]p: init_precond: 4688.471 [ms]
[OGL LOG]0][lduLduBase.hpp:288] start create solver
[OGL LOG][StoppingCriterion.hpp:216] Creating stopping criterion with minIter 0 frequency 10
[OGL LOG][Proc: 0]p: generate_solver: 0.044 [ms]
[OGL LOG]0][lduLduBase.hpp:294] done create solver
[OGL LOG][Proc: 0]p: solve: 29041.32 [ms]
[OGL LOG][Proc: 7]p: copy_x_back: 33954.84 [ms]
[OGL LOG][Proc: 2]p: copy_x_back: 33955.29 [ms]
[OGL LOG][Proc: 3]p: copy_x_back: 33955.73 [ms]
[OGL LOG][Proc: 1]p: copy_x_back: 33955.66 [ms]
[OGL LOG][Proc: 6]p: copy_x_back: 33955.48 [ms]
[OGL LOG][Proc: 4]p: copy_x_back: 33956 [ms]
[OGL LOG][Proc: 5]p: copy_x_back: 33956.03 [ms]
[OGL LOG][Proc: 0]p: copy_x_back: 108.765 [ms]
[OGL LOG][lduLduBase.hpp:339] 
Statistics:
	Number DOFs: 34088573 [#]
	Time per iteration: 144484 [mu s]
	Time per residual norm calculation: 1026.000000 [mu s]
	Time per DOF: 851.936982 [ns]
	Time per iteration and DOF: 4.238488 [ns]
	Retrieve results bandwidth 0.315000 [GByte/s]
[OGL LOG][Proc: 5]p: solve_multi_gpu: 55996.64 [ms]
[OGL LOG][Proc: 4]p: solve_multi_gpu: 55996.63 [ms]
[OGL LOG][Proc: 6]p: solve_multi_gpu: 55996.64 [ms]
[OGL LOG][Proc: 7]p: solve_multi_gpu: 55996.64 [ms]
[OGL LOG][Proc: 2]p: solve_multi_gpu: 55996.63 [ms]
[OGL LOG][Proc: 3]p: solve_multi_gpu: 55996.64 [ms]
[OGL LOG][Proc: 1]p: solve_multi_gpu: 55996.64 [ms]
[OGL LOG][Proc: 0]p: solve_multi_gpu: 55998.12 [ms]
ILUsyclGKOCG:  Solving for p, Initial residual = 1, Final residual = 1, No Iterations 201
[OGL LOG][Base.hpp:87] reading p_distributed_matrix from registry
[OGL LOG][Proc: 1]p: perform_all_to_all_update: 943.105 [ms]
[OGL LOG][Proc: 4]p: perform_all_to_all_update: 955.858 [ms]
[OGL LOG][Proc: 2]p: perform_all_to_all_update: 968.616 [ms]
[OGL LOG][Proc: 3]p: perform_all_to_all_update: 981.427 [ms]
[OGL LOG][Proc: 7]p: perform_all_to_all_update: 994.201 [ms]
[OGL LOG][Proc: 6]p: perform_all_to_all_update: 1006.977 [ms]
[OGL LOG][Proc: 5]p: perform_all_to_all_update: 1019.897 [ms]
[OGL LOG][Proc: 0]p: perform_all_to_all_update: 1048.757 [ms]
[OGL LOG][Proc: 7]p: perform_pairwise_update: 54.767 [ms]
[OGL LOG][Proc: 6]p: perform_pairwise_update: 42.082 [ms]
[OGL LOG][Proc: 6]p: reorder_matrix_data: 0.084 [ms]
[OGL LOG][Proc: 6]: perform_matrix_update: 1049.162 [ms]
[OGL LOG][Proc: 6]p_distributed_matrix: call_update: 1049.165 [ms]
[OGL LOG]6][Vector.hpp:63] updating array p_rhs of host size 4247861 repartitioned size 0
[OGL LOG][Proc: 7]p: reorder_matrix_data: 0.102 [ms]
[OGL LOG][Proc: 7]: perform_matrix_update: 1049.09 [ms]
[OGL LOG][Proc: 7]p_distributed_matrix: call_update: 1049.093 [ms]
[OGL LOG]7][Vector.hpp:63] updating array p_rhs of host size 4248005 repartitioned size 0
[OGL LOG][Proc: 5]p: perform_pairwise_update: 29.302 [ms]
[OGL LOG][Proc: 5]p: reorder_matrix_data: 0.075 [ms]
[OGL LOG][Proc: 5]: perform_matrix_update: 1049.292 [ms]
[OGL LOG][Proc: 5]p_distributed_matrix: call_update: 1049.295 [ms]
[OGL LOG]5][Vector.hpp:63] updating array p_rhs of host size 4246941 repartitioned size 0
[OGL LOG][Proc: 4]p: perform_pairwise_update: 93.563 [ms]
[OGL LOG][Proc: 4]p: reorder_matrix_data: 0.076 [ms]
[OGL LOG][Proc: 4]: perform_matrix_update: 1049.518 [ms]
[OGL LOG][Proc: 4]p_distributed_matrix: call_update: 1049.521 [ms]
[OGL LOG]4][Vector.hpp:63] updating array p_rhs of host size 4267161 repartitioned size 0
[OGL LOG][Proc: 3]p: perform_pairwise_update: 68.152 [ms]
[OGL LOG][Proc: 3]p: reorder_matrix_data: 0.074 [ms]
[OGL LOG][Proc: 3]: perform_matrix_update: 1049.672 [ms]
[OGL LOG][Proc: 3]p_distributed_matrix: call_update: 1049.674 [ms]
[OGL LOG]3][Vector.hpp:63] updating array p_rhs of host size 4251060 repartitioned size 0
[OGL LOG][Proc: 2]p: perform_pairwise_update: 81.128 [ms]
[OGL LOG][Proc: 2]p: reorder_matrix_data: 0.073 [ms]
[OGL LOG][Proc: 2]: perform_matrix_update: 1049.835 [ms]
[OGL LOG][Proc: 2]p_distributed_matrix: call_update: 1049.838 [ms]
[OGL LOG]2][Vector.hpp:63] updating array p_rhs of host size 4271945 repartitioned size 0
[OGL LOG][Proc: 1]p: perform_pairwise_update: 106.787 [ms]
[OGL LOG][Proc: 1]p: reorder_matrix_data: 0.076 [ms]
[OGL LOG][Proc: 1]: perform_matrix_update: 1049.994 [ms]
[OGL LOG][Proc: 1]p_distributed_matrix: call_update: 1049.998 [ms]
[OGL LOG]1][Vector.hpp:63] updating array p_rhs of host size 4266093 repartitioned size 0
[OGL LOG][Proc: 0]p: perform_pairwise_update: 2.6 [ms]
[OGL LOG][Proc: 0]p: reorder_matrix_data: 41.242 [ms]
[OGL LOG][Proc: 0]: perform_matrix_update: 1092.624 [ms]
[OGL LOG][Proc: 0]p_distributed_matrix: call_update: 1092.626 [ms]
[OGL LOG][Base.hpp:87] reading p_rhs from registry
[OGL LOG]0][Vector.hpp:63] updating array p_rhs of host size 4289507 repartitioned size 34088573
[OGL LOG][Proc: 1]p_rhs: call_update: 62.38 [ms]
[OGL LOG]1][Vector.hpp:63] updating array p_initial_guess of host size 4266093 repartitioned size 0
[OGL LOG][Proc: 2]p_rhs: call_update: 75.21 [ms]
[OGL LOG]2][Vector.hpp:63] updating array p_initial_guess of host size 4271945 repartitioned size 0
[OGL LOG][Proc: 3]p_rhs: call_update: 88.295 [ms]
[OGL LOG]3][Vector.hpp:63] updating array p_initial_guess of host size 4251060 repartitioned size 0
[OGL LOG][Proc: 4]p_rhs: call_update: 101.202 [ms]
[OGL LOG]4][Vector.hpp:63] updating array p_initial_guess of host size 4267161 repartitioned size 0
[OGL LOG][Proc: 5]p_rhs: call_update: 111.399 [ms]
[OGL LOG]5][Vector.hpp:63] updating array p_initial_guess of host size 4246941 repartitioned size 0
[OGL LOG][Proc: 6]p_rhs: call_update: 124.236 [ms]
[OGL LOG]6][Vector.hpp:63] updating array p_initial_guess of host size 4247861 repartitioned size 0
[OGL LOG][Proc: 7]p_rhs: call_update: 137.032 [ms]
[OGL LOG]7][Vector.hpp:63] updating array p_initial_guess of host size 4248005 repartitioned size 0
[OGL LOG][Proc: 0]p_rhs: call_update: 123.143 [ms]
[OGL LOG][Base.hpp:87] reading p_initial_guess from registry
[OGL LOG]0][Vector.hpp:63] updating array p_initial_guess of host size 4289507 repartitioned size 34088573
[OGL LOG][Proc: 1]p_initial_guess: call_update: 123.162 [ms]
[OGL LOG][Proc: 1]p: init_precond: 0.537 [ms]
[OGL LOG]1][lduLduBase.hpp:288] start create solver
[OGL LOG][Proc: 1]p: generate_solver: 0.012 [ms]
[OGL LOG]1][lduLduBase.hpp:294] done create solver
[OGL LOG][Proc: 2]p_initial_guess: call_update: 123.246 [ms]
[OGL LOG][Proc: 2]p: init_precond: 0.449 [ms]
[OGL LOG]2][lduLduBase.hpp:288] start create solver
[OGL LOG][Proc: 2]p: generate_solver: 0.008 [ms]
[OGL LOG]2][lduLduBase.hpp:294] done create solver
[OGL LOG][Proc: 3]p_initial_guess: call_update: 123.1 [ms]
[OGL LOG][Proc: 3]p: init_precond: 0.365 [ms]
[OGL LOG]3][lduLduBase.hpp:288] start create solver
[OGL LOG][Proc: 3]p: generate_solver: 0.006 [ms]
[OGL LOG]3][lduLduBase.hpp:294] done create solver
[OGL LOG][Proc: 4]p_initial_guess: call_update: 123.213 [ms]
[OGL LOG][Proc: 4]p: init_precond: 0.469 [ms]
[OGL LOG]4][lduLduBase.hpp:288] start create solver
[OGL LOG][Proc: 4]p: generate_solver: 0.007 [ms]
[OGL LOG]4][lduLduBase.hpp:294] done create solver
[OGL LOG][Proc: 5]p_initial_guess: call_update: 123.242 [ms]
[OGL LOG][Proc: 5]p: init_precond: 0.507 [ms]
[OGL LOG]5][lduLduBase.hpp:288] start create solver
[OGL LOG][Proc: 5]p: generate_solver: 0.006 [ms]
[OGL LOG]5][lduLduBase.hpp:294] done create solver
[OGL LOG][Proc: 6]p_initial_guess: call_update: 123.226 [ms]
[OGL LOG][Proc: 6]p: init_precond: 0.465 [ms]
[OGL LOG]6][lduLduBase.hpp:288] start create solver
[OGL LOG][Proc: 6]p: generate_solver: 0.006 [ms]
[OGL LOG]6][lduLduBase.hpp:294] done create solver
[OGL LOG][Proc: 7]p_initial_guess: call_update: 123.155 [ms]
[OGL LOG][Proc: 7]p: init_precond: 0.342 [ms]
[OGL LOG]7][lduLduBase.hpp:288] start create solver
[OGL LOG][Proc: 7]p: generate_solver: 0.007 [ms]
[OGL LOG]7][lduLduBase.hpp:294] done create solver
[OGL LOG][Proc: 0]p_initial_guess: call_update: 122.828 [ms]
[OGL LOG][Preconditioner.hpp:219] Generate preconditioner ILU
terminate called after throwing an instance of 'sycl::_V1::exception'
  what():  level_zero backend failed with error: 20 (UR_RESULT_ERROR_DEVICE_LOST)
[Tavea-Station:41961] *** Process received signal ***
[Tavea-Station:41961] Signal: Aborted (6)
[Tavea-Station:41961] Signal code:  (-6)
[Tavea-Station:41961] [ 0] /usr/lib/x86_64-linux-gnu/libc.so.6(+0x45cb0) [0x79551ac45cb0]
[Tavea-Station:41961] [ 1] /usr/lib/x86_64-linux-gnu/libc.so.6(pthread_kill+0x11c) [0x79551aca648c]
[Tavea-Station:41961] [ 2] /usr/lib/x86_64-linux-gnu/libc.so.6(gsignal+0x1e) [0x79551ac45b7e]
[Tavea-Station:41961] [ 3] /usr/lib/x86_64-linux-gnu/libc.so.6(abort+0x27) [0x79551ac288ec]
[Tavea-Station:41961] [ 4] /usr/lib/x86_64-linux-gnu/libstdc++.so.6(+0xac275) [0x79551b0ac275]
[Tavea-Station:41961] [ 5] /usr/lib/x86_64-linux-gnu/libstdc++.so.6(+0xc364a) [0x79551b0c364a]
[Tavea-Station:41961] [ 6] /usr/lib/x86_64-linux-gnu/libstdc++.so.6(_ZSt10unexpectedv+0x0) [0x79551b0abc6c]
[Tavea-Station:41961] [ 7] /usr/lib/x86_64-linux-gnu/libstdc++.so.6(+0xc3901) [0x79551b0c3901]
[Tavea-Station:41961] [ 8] /opt/intel/oneapi/compiler/2026.0/lib/libsycl.so.9(+0x1bbf84) [0x7954f35bbf84]
[Tavea-Station:41961] [ 9] /opt/intel/oneapi/compiler/2026.0/lib/libsycl.so.9(+0x20b830) [0x7954f360b830]
[Tavea-Station:41961] [10] /opt/intel/oneapi/compiler/2026.0/lib/libsycl.so.9(+0x20b9ed) [0x7954f360b9ed]
[Tavea-Station:41961] [11] /home/heiko/OpenFOAM/heiko-13/platforms/linux64GccDPInt32Opt/lib/libginkgo_dpcpp.so.2.0.0(_ZNK3gko13DpcppExecutor11raw_copy_toEPKS0_mPKvPv+0xc9) [0x7954f90f0b19]
[Tavea-Station:41961] [12] /home/heiko/OpenFOAM/heiko-13/platforms/linux64GccDPInt32Opt/lib/libOGL.so(_ZNK3gko8Executor9copy_fromIiEEvNS_9ptr_paramIKS0_EEmPKT_PS5_+0x111) [0x795504aab5c1]
[Tavea-Station:41961] [13] /home/heiko/OpenFOAM/heiko-13/platforms/linux64GccDPInt32Opt/lib/libOGL.so(_ZN3gko5arrayIiEaSERKS1_+0x4eb) [0x795504b0111b]
[Tavea-Station:41961] [14] /home/heiko/OpenFOAM/heiko-13/platforms/linux64GccDPInt32Opt/lib/libginkgo.so.2.0.0(_ZNK3gko6matrix3CsrIdiE10convert_toEPNS0_3CooIdiEE+0x634) [0x795502fb1dc4]
[Tavea-Station:41961] [15] /home/heiko/OpenFOAM/heiko-13/platforms/linux64GccDPInt32Opt/lib/libginkgo.so.2.0.0(_ZNK3gko13factorization6ParIluIdiE12generate_l_uERKSt10shared_ptrIKNS_5LinOpEEbS3_INS_6matrix3CsrIdiE13strategy_typeEESD_+0xe22) [0x795502c55852]
[Tavea-Station:41961] [16] /home/heiko/OpenFOAM/heiko-13/platforms/linux64GccDPInt32Opt/lib/libOGL.so(_ZNK3gko20EnableDefaultFactoryINS_13factorization6ParIluIdiE7FactoryES3_NS3_15parameters_typeENS_12LinOpFactoryEE13generate_implESt10shared_ptrIKNS_5LinOpEE+0x382) [0x795504b7b342]
[Tavea-Station:41961] [17] /home/heiko/OpenFOAM/heiko-13/platforms/linux64GccDPInt32Opt/lib/libOGL.so(_ZNK3gko12LinOpFactory8generateESt10shared_ptrIKNS_5LinOpEE+0x617) [0x795504b74ee7]
[Tavea-Station:41961] [18] /home/heiko/OpenFOAM/heiko-13/platforms/linux64GccDPInt32Opt/lib/libOGL.so(_ZNK4Foam14Preconditioner24init_preconditioner_implENS_4wordERKNS_10dictionaryESt10shared_ptrIKN3gko5LinOpEES5_INS6_8ExecutorEE+0x5eb4) [0x795504b45194]
[Tavea-Station:41961] [19] /home/heiko/OpenFOAM/heiko-13/platforms/linux64GccDPInt32Opt/lib/libOGL.so(_ZNK4Foam10lduLduBaseINS_9lduMatrixENS_12GKOCGFactoryEE20solve_multi_gpu_implERNS_5FieldIdEERKS5_RNS_17SolverPerformanceIdEE+0x4395) [0x795504b2d495]
[Tavea-Station:41961] [20] /home/heiko/OpenFOAM/heiko-13/platforms/linux64GccDPInt32Opt/lib/libOGL.so(_ZNK4Foam16GKOlduBaseSolverINS_12GKOCGFactoryEE10solve_implENS_4wordERNS_5FieldIdEERKS5_h+0x4f3) [0x795504b18c43]
[Tavea-Station:41961] [21] /home/heiko/OpenFOAM/heiko-13/platforms/linux64GccDPInt32Opt/lib/libOGL.so(_ZNK4Foam5GKOCG5solveERNS_5FieldIdEERKS2_h+0xa6) [0x795504b186f6]
[Tavea-Station:41961] [22] /opt/openfoam13/platforms/linux64GccDPInt32Opt/lib/libfiniteVolume.so(_ZN4Foam8fvMatrixIdE15solveSegregatedERKNS_10dictionaryE+0x1b7) [0x79551ceecf47]
[Tavea-Station:41961] [23] /opt/openfoam13/platforms/linux64GccDPInt32Opt/lib/libfiniteVolume.so(_ZN4Foam8fvMatrixIdE5solveERKNS_10dictionaryE+0x312) [0x79551c95a3a2]
[Tavea-Station:41961] [24] /opt/openfoam13/platforms/linux64GccDPInt32Opt/lib/libfiniteVolume.so(_ZN4Foam8fvMatrixIdE5solveEv+0x8a) [0x79551c96ff6a]
[Tavea-Station:41961] [25] /opt/openfoam13/platforms/linux64GccDPInt32Opt/lib/libincompressibleFluid.so(_ZN4Foam7solvers19incompressibleFluid15correctPressureEv+0x70a) [0x7954de35564a]
[Tavea-Station:41961] [26] /opt/openfoam13/platforms/linux64GccDPInt32Opt/lib/libincompressibleFluid.so(_ZN4Foam7solvers19incompressibleFluid17pressureCorrectorEv+0x2c) [0x7954de37fbec]
[Tavea-Station:41961] [27] foamRun(+0x416e) [0x641a5395a16e]
[Tavea-Station:41961] [28] /usr/lib/x86_64-linux-gnu/libc.so.6(+0x2a601) [0x79551ac2a601]
[Tavea-Station:41961] [29] /usr/lib/x86_64-linux-gnu/libc.so.6(__libc_start_main+0x88) [0x79551ac2a718]
[Tavea-Station:41961] *** End of error message ***
--------------------------------------------------------------------------
Sorry!  You were supposed to get help about:
    prun:proc-aborted-strsignal
But I couldn't open the help file:
    /usr/lib/x86_64-linux-gnu/pmix2/share/pmix/help-prun.txt: No such file or directory
    /usr/lib/x86_64-linux-gnu/prrte3/share/prte/help-prun.txt: No such file or directory.
Sorry!
--------------------------------------------------------------------------
 